*Heading
** Job name: Carrgamento_min_max Model name: todas_peças
** Generated by: Abaqus/CAE Student Edition 2020
*Preprint, echo=NO, model=NO, history=NO, contact=NO
**
** PARTS
**
*Part, name="landing gear st-3"
*Node
      1,   1.42687452,  0.173187956, -0.224999994
      2,   1.17844939,  0.603473008, -0.224999994
      3,   1.17844939,  0.603473008,  0.224999994
      4,   1.42687452,  0.173187956,  0.224999994
      5,   1.07844937,   0.43026796, -0.224999994
      6,   1.07844937,   0.43026796,  0.224999994
      7,   1.22687459,  0.173187956,  0.224999994
      8,   1.22687459,  0.173187956, -0.224999994
      9,  0.808683276,  0.816957593,  0.224999994
     10,  0.808683276,  0.816957593, -0.224999994
     11,  0.708683252,  0.643752515, -0.224999994
     12,  0.708683252,  0.643752515,  0.224999994
     13,  0.460258096,   1.07403755, -0.224999994
     14,  0.460258096,   1.07403755,  0.224999994
     15,  0.660258114,   1.07403755,  0.224999994
     16,  0.660258114,   1.07403755, -0.224999994
     17,  0.460258096,   4.84491587,  0.224999994
     18,  0.660258114,   4.84491587,  0.224999994
     19,  0.660258114,   4.84491587, -0.224999994
     20,  0.460258096,   4.84491587, -0.224999994
** ... 434 like lines cut
*Element, type=C3D8R
 1,   8,  38, 235,  43,   1,  29, 231,  36
 2,  38,  37, 236, 235,  29,  30, 232, 231
 3,  37,   5,  40, 236,  30,   2,  31, 232
 4,  43, 235, 237,  44,  36, 231, 233,  35
 5, 235, 236, 238, 237, 231, 232, 234, 233
 6, 236,  40,  39, 238, 232,  31,  32, 234
 7,  44, 237,  41,   7,  35, 233,  34,   4
 8, 237, 238,  42,  41, 233, 234,  33,  34
 9, 238,  39,   6,  42, 234,  32,   3,  33
10,   3,  32,  39,   6,  51, 239, 243,  50
11,  32,  31,  40,  39, 239, 240, 244, 243
12,  31,   2,   5,  40, 240,  56,  53, 244
13,  51, 239, 243,  50,  52, 241, 245,  49
14, 239, 240, 244, 243, 241, 242, 246, 245
15, 240,  56,  53, 244, 242,  55,  54, 246
16,  52, 241, 245,  49,   9,  45,  48,  12
17, 241, 242, 246, 245,  45,  46,  47,  48
18, 242,  55,  54, 246,  46,  10,  11,  47
19,  16,  64, 251,  67,  13,  57, 247,  62
20,  64,  63, 252, 251,  57,  58, 248, 247
** ... 156 like lines cut
*Nset, nset=_PickedSet22, internal, generate
   1,  454,    1
*Elset, elset=_PickedSet22, internal, generate
   1,  176,    1
** Section: Section-2
*Solid Section, elset=_PickedSet22, material=aco
,
*End Part
**  
**
** ASSEMBLY
**
*Assembly, name=Assembly
**  
*Instance, name="landing gear st-3-1", part="landing gear st-3"
*End Instance
**  
*Nset, nset=_PickedSet12, internal, instance="landing gear st-3-1"
 17, 18, 19, 20, 69, 70, 71, 72
*Elset, elset=_PickedSet12, internal, instance="landing gear st-3-1", generate
 100,  102,    1
*Elset, elset=__PickedSurf13_S3, internal, instance="landing gear st-3-1", generate
 103,  131,    4
*Elset, elset=__PickedSurf13_S4, internal, instance="landing gear st-3-1", generate
 103,  131,    4
*Elset, elset=__PickedSurf13_S5, internal, instance="landing gear st-3-1", generate
 104,  132,    4
*Elset, elset=__PickedSurf13_S6, internal, instance="landing gear st-3-1", generate
 104,  132,    4
*Surface, type=ELEMENT, name=_PickedSurf13, internal
__PickedSurf13_S3, S3
__PickedSurf13_S4, S4
__PickedSurf13_S6, S6
__PickedSurf13_S5, S5
*Elset, elset=__PickedSurf17_S5, internal, instance="landing gear st-3-1", generate
 105,  133,    4
*Elset, elset=__PickedSurf17_S6, internal, instance="landing gear st-3-1", generate
 105,  133,    4
*Elset, elset=__PickedSurf17_S3, internal, instance="landing gear st-3-1", generate
 106,  134,    4
*Elset, elset=__PickedSurf17_S4, internal, instance="landing gear st-3-1", generate
 106,  134,    4
*Surface, type=ELEMENT, name=_PickedSurf17, internal
__PickedSurf17_S5, S5
__PickedSurf17_S6, S6
__PickedSurf17_S4, S4
__PickedSurf17_S3, S3
*End Assembly
** 
** MATERIALS
** 
*Material, name=aco
*Density
 9e-06,
*Elastic
210000., 0.3
** 
** BOUNDARY CONDITIONS
** 
** Name: BC-1 Type: Symmetry/Antisymmetry/Encastre
*Boundary
_PickedSet12, ENCASTRE
** ----------------------------------------------------------------
** 
** STEP: load_min
** 
*Step, name=load_min, nlgeom=NO
*Static
1., 1., 1e-05, 1.
** 
** LOADS
** 
** Name: Load-1   Type: Pressure
*Dsload
_PickedSurf13, P, 2254.15
** 
** OUTPUT REQUESTS
** 
*Restart, write, frequency=0
** 
** FIELD OUTPUT: F-Output-1
** 
*Output, field
*Node Output
CF, RF, U
*Element Output, directions=YES
LE, MISES, MISESMAX, MISESONLY, PE, PEEQ, PEMAG, S
*Contact Output
CDISP, CSTRESS
** 
** HISTORY OUTPUT: H-Output-1
** 
*Output, history, variable=PRESELECT
*End Step
** ----------------------------------------------------------------
** 
** STEP: Step-3
** 
*Step, name=Step-3, nlgeom=NO
*Static
1., 1., 1e-05, 1.
** 
** LOADS
** 
** Name: Load-1   Type: Pressure
*Dsload, op=NEW
** 
** OUTPUT REQUESTS
** 
*Restart, write, frequency=0
** 
** FIELD OUTPUT: F-Output-1
** 
*Output, field
*Node Output
CF, RF, U
*Element Output, directions=YES
LE, MISES, MISESMAX, MISESONLY, PE, PEEQ, PEMAG, S
*Contact Output
CDISP, CSTRESS
** 
** HISTORY OUTPUT: H-Output-1
** 
*Output, history, variable=PRESELECT
*End Step
** ----------------------------------------------------------------
** 
** STEP: load_max
** 
*Step, name=load_max, nlgeom=NO
*Static
1., 1., 1e-05, 1.
** 
** LOADS
** 
** Name: Load-2   Type: Pressure
*Dsload
_PickedSurf17, P, 2254.15
** 
** OUTPUT REQUESTS
** 
*Restart, write, frequency=0
** 
** FIELD OUTPUT: F-Output-1
** 
*Output, field
*Node Output
CF, RF, U
*Element Output, directions=YES
LE, MISES, MISESMAX, MISESONLY, PE, PEEQ, PEMAG, S
*Contact Output
CDISP, CSTRESS
** 
** HISTORY OUTPUT: H-Output-1
** 
*Output, history, variable=PRESELECT
*End Step
