*Heading
** Job name: Carrgamento_min_max Model name: Model-1
** Generated by: Abaqus/CAE Student Edition 2020
*Preprint, echo=NO, model=NO, history=NO, contact=NO
**
** PARTS
**
*Part, name=Part-1
*Node
      1,           0.,         -15.,         500.
      2,           0.,         -10.,         500.
      3,           0.,          -5.,         500.
      4,           0.,         -15.,   493.150696
      5,           0.,         -10.,   493.150696
      6,           0.,          -5.,   493.150696
      7,           0.,         -15.,   486.301361
      8,           0.,         -10.,   486.301361
      9,           0.,          -5.,   486.301361
     10,           0.,         -15.,   479.452057
     11,           0.,         -10.,   479.452057
     12,           0.,          -5.,   479.452057
     13,           0.,         -15.,   472.602753
     14,           0.,         -10.,   472.602753
     15,           0.,          -5.,   472.602753
     16,           0.,         -15.,   465.753418
     17,           0.,         -10.,   465.753418
     18,           0.,          -5.,   465.753418
     19,           0.,         -15.,   458.904114
     20,           0.,         -10.,   458.904114
** ... 868 like lines cut
*Element, type=C3D8R
  1, 223, 224, 227, 226,   1,   2,   5,   4
  2, 224, 225, 228, 227,   2,   3,   6,   5
  3, 226, 227, 230, 229,   4,   5,   8,   7
  4, 227, 228, 231, 230,   5,   6,   9,   8
  5, 229, 230, 233, 232,   7,   8,  11,  10
  6, 230, 231, 234, 233,   8,   9,  12,  11
  7, 232, 233, 236, 235,  10,  11,  14,  13
  8, 233, 234, 237, 236,  11,  12,  15,  14
  9, 235, 236, 239, 238,  13,  14,  17,  16
 10, 236, 237, 240, 239,  14,  15,  18,  17
 11, 238, 239, 242, 241,  16,  17,  20,  19
 12, 239, 240, 243, 242,  17,  18,  21,  20
 13, 241, 242, 245, 244,  19,  20,  23,  22
 14, 242, 243, 246, 245,  20,  21,  24,  23
 15, 244, 245, 248, 247,  22,  23,  26,  25
 16, 245, 246, 249, 248,  23,  24,  27,  26
 17, 247, 248, 251, 250,  25,  26,  29,  28
 18, 248, 249, 252, 251,  26,  27,  30,  29
 19, 250, 251, 254, 253,  28,  29,  32,  31
 20, 251, 252, 255, 254,  29,  30,  33,  32
** ... 418 like lines cut
*Nset, nset=_PickedSet7, internal, generate
   1,  888,    1
*Elset, elset=_PickedSet7, internal, generate
   1,  438,    1
** Section: Section-1
*Solid Section, elset=_PickedSet7, material=Material-1
,
*End Part
**  
**
** ASSEMBLY
**
*Assembly, name=Assembly
**  
*Instance, name=Part-1-1, part=Part-1
*End Instance
**  
*Nset, nset=_PickedSet4, internal, instance=Part-1-1
   1,   2,   3, 223, 224, 225, 445, 446, 447, 667, 668, 669
*Elset, elset=_PickedSet4, internal, instance=Part-1-1
   1,   2, 147, 148, 293, 294
*Nset, nset=_PickedSet5, internal, instance=Part-1-1
 886, 888
*End Assembly
** 
** MATERIALS
** 
*Material, name=Material-1
*Density
 7.85e-09,
*Elastic
210000., 0.3
** 
** BOUNDARY CONDITIONS
** 
** Name: BC-1 Type: Symmetry/Antisymmetry/Encastre
*Boundary
_PickedSet4, ENCASTRE
** ----------------------------------------------------------------
** 
** STEP: load_min
** 
*Step, name=load_min, nlgeom=NO
*Static
1., 1., 1e-05, 1.
** 
** LOADS
** 
** Name: Load-3   Type: Gravity
*Dload
, GRAV, 9810., 0., -1., 0.
** Name: load_min   Type: Concentrated force
*Cload, op=NEW
_PickedSet5, 1, -50.
** 
** OUTPUT REQUESTS
** 
*Restart, write, frequency=0
** 
** FIELD OUTPUT: F-Output-1
** 
*Output, field, variable=PRESELECT
** 
** HISTORY OUTPUT: H-Output-1
** 
*Output, history, variable=PRESELECT
*End Step
** ----------------------------------------------------------------
** 
** STEP: load_max
** 
*Step, name=load_max, nlgeom=NO
*Static
1., 1., 1e-05, 1.
** 
** LOADS
** 
** Name: load_max   Type: Concentrated force
*Cload, op=NEW
_PickedSet5, 1, 50.
** Name: load_min   Type: Concentrated force
*Cload, op=NEW
** 
** OUTPUT REQUESTS
** 
*Restart, write, frequency=0
** 
** FIELD OUTPUT: F-Output-1
** 
*Output, field, variable=PRESELECT
** 
** HISTORY OUTPUT: H-Output-1
** 
*Output, history, variable=PRESELECT
*End Step
